LTspice 24.0.9 for Windows
Circuit: * D:\dev\RTSpeed\simulation\models\LT1160_TA01.asc
Start Time: Thu Feb 15 09:26:26 2024
solver = Normal
Maximum thread count: 8
tnom = 27
temp = 27
method = modified trap
Direct Newton iteration for .op point succeeded.
Ignoring empty pin current: Ix(u1:7)
Ignoring empty pin current: Ix(u1:7)
Total elapsed time: 3.515 seconds.

